xflr5 v6.61

Trevor airlines
T1-10.0 m/s-Panel-Inviscid
QInf  =   10.000000 m/s
Alpha =    0.000000
Beta  =    0.000°
Phi   =    0.000°
Ctrl  =    0.000
CL    =    0.576972
Cy    =    0.000000
Cd    =    0.009765     ICd   =    0.009765     PCd   =    0.000000
Cl   = 9.11945e-16
Cm   =   -0.897604
ICn   =   -0.000000     PCn   =   -0.000000
XCP   =    8.470060     YCP   =   -0.000000     ZCP   =    1.131102
XNP   =    0.000000
Bending = 49348.558103

Main Wing
  y-span        Chord      Ai         Cl        PCd          ICd        CmGeom    CmAirf@chord/4    XTrtop    XTrBot      XCP       BM
  -26.7393     2.2991    -5.543    0.225337    0.000000    0.021882   -1.584530   -0.043286     0.0000    0.0000    0.4230    0.0000
  -26.5566     2.3355    -3.971    0.364903    0.000000    0.025341   -2.344997   -0.072585     0.0000    0.0000    0.4430    0.5422
  -26.1925     2.4081    -2.861    0.476654    0.000000    0.023831   -2.860957   -0.086229     0.0000    0.0000    0.4300    6.9433
  -25.6496     2.5164    -2.082    0.553262    0.000000    0.020124   -3.132426   -0.097935     0.0000    0.0000    0.4258   34.2217
  -24.9314     2.6596    -1.554    0.601337    0.000000    0.016320   -3.161434   -0.105446     0.0000    0.0000    0.4236   109.8562
  -24.0428     2.8367    -1.203    0.628703    0.000000    0.013211   -3.019418   -0.109722     0.0000    0.0000    0.4225   275.0414
  -22.9901     3.0466    -0.982    0.642136    0.000000    0.011009   -2.777995   -0.112017     0.0000    0.0000    0.4223   585.0955
  -21.7803     3.2878    -0.852    0.646517    0.000000    0.009620   -2.489937   -0.113225     0.0000    0.0000    0.4229   1109.3989
  -20.4217     3.5586    -0.785    0.644975    0.000000    0.008842   -2.189091   -0.113857     0.0000    0.0000    0.4243   1930.8917
  -18.9237     3.8573    -0.761    0.639406    0.000000    0.008495   -1.895484   -0.114178     0.0000    0.0000    0.4264   3144.9487
  -17.2963     4.1817    -0.766    0.630906    0.000000    0.008437   -1.620094   -0.114336     0.0000    0.0000    0.4292   4857.4225
  -15.5508     4.5297    -0.791    0.620066    0.000000    0.008568   -1.368224   -0.114402     0.0000    0.0000    0.4326   7181.6918
  -13.6991     4.8989    -0.830    0.607130    0.000000    0.008804   -1.141725   -0.114403     0.0000    0.0000    0.4367   10234.6209
  -11.7538     5.2867    -0.881    0.592201    0.000000    0.009114   -0.940752   -0.114435     0.0000    0.0000    0.4417   14131.4074
   -9.7282     5.6905    -0.937    0.575030    0.000000    0.009413   -0.764044   -0.114484     0.0000    0.0000    0.4477   18979.5169
   -7.6362     6.1076    -0.993    0.555255    0.000000    0.009638   -0.610178   -0.114654     0.0000    0.0000    0.4554   24871.5665
   -5.4920     6.5351    -1.039    0.532216    0.000000    0.009666   -0.477699   -0.115163     0.0000    0.0000    0.4656   31877.6048
   -3.3103     6.9700    -1.043    0.504756    0.000000    0.009217   -0.365674   -0.116588     0.0000    0.0000    0.4806   40036.8180
   -1.1059     7.4095    -0.875    0.469310    0.000000    0.007249   -0.274930   -0.120865     0.0000    0.0000    0.5066   49348.5581
    1.1059     7.4095    -0.875    0.469310    0.000000    0.007249   -0.274930   -0.120865     0.0000    0.0000    0.5066   49348.5581
    3.3103     6.9700    -1.043    0.504756    0.000000    0.009217   -0.365674   -0.116588     0.0000    0.0000    0.4806   40036.8180
    5.4920     6.5351    -1.039    0.532216    0.000000    0.009666   -0.477699   -0.115163     0.0000    0.0000    0.4656   31877.6048
    7.6362     6.1076    -0.993    0.555255    0.000000    0.009638   -0.610178   -0.114654     0.0000    0.0000    0.4554   24871.5665
    9.7282     5.6905    -0.937    0.575030    0.000000    0.009413   -0.764044   -0.114484     0.0000    0.0000    0.4477   18979.5169
   11.7538     5.2867    -0.881    0.592201    0.000000    0.009114   -0.940752   -0.114435     0.0000    0.0000    0.4417   14131.4074
   13.6991     4.8989    -0.830    0.607130    0.000000    0.008804   -1.141725   -0.114403     0.0000    0.0000    0.4367   10234.6209
   15.5508     4.5297    -0.791    0.620066    0.000000    0.008568   -1.368224   -0.114402     0.0000    0.0000    0.4326   7181.6918
   17.2963     4.1817    -0.766    0.630906    0.000000    0.008437   -1.620094   -0.114336     0.0000    0.0000    0.4292   4857.4225
   18.9237     3.8573    -0.761    0.639406    0.000000    0.008495   -1.895484   -0.114178     0.0000    0.0000    0.4264   3144.9487
   20.4217     3.5586    -0.785    0.644975    0.000000    0.008842   -2.189091   -0.113857     0.0000    0.0000    0.4243   1930.8917
   21.7803     3.2878    -0.852    0.646517    0.000000    0.009620   -2.489937   -0.113225     0.0000    0.0000    0.4229   1109.3989
   22.9901     3.0466    -0.982    0.642136    0.000000    0.011009   -2.777995   -0.112017     0.0000    0.0000    0.4223   585.0955
   24.0428     2.8367    -1.203    0.628703    0.000000    0.013211   -3.019418   -0.109722     0.0000    0.0000    0.4225   275.0414
   24.9314     2.6596    -1.554    0.601337    0.000000    0.016320   -3.161434   -0.105446     0.0000    0.0000    0.4236   109.8562
   25.6496     2.5164    -2.082    0.553262    0.000000    0.020124   -3.132426   -0.097935     0.0000    0.0000    0.4258   34.2217
   26.1925     2.4081    -2.861    0.476654    0.000000    0.023831   -2.860957   -0.086229     0.0000    0.0000    0.4300    6.9433
   26.5566     2.3355    -3.971    0.364903    0.000000    0.025341   -2.344997   -0.072585     0.0000    0.0000    0.4430    0.5422
   26.7393     2.2991    -5.543    0.225337    0.000000    0.021882   -1.584530   -0.043286     0.0000    0.0000    0.4230    0.0000


Main Wing Cp Coefficients
 Panel     CtrlPt.x        CtrlPt.y        CtrlPt.z       Nx      Ny       Nz        Area       Cp
Main WingCp Coefficients
Strip 1
  13       1.597e+01      -2.665e+01       2.205e+00          -0.083          -0.121          -0.989       3.072e-03         -0.1660
  14       1.590e+01      -2.665e+01       2.218e+00          -0.219          -0.161          -0.962       9.253e-03         -0.0969
  15       1.578e+01      -2.665e+01       2.237e+00          -0.106          -0.127          -0.986       1.451e-02         -0.0471
  16       1.559e+01      -2.664e+01       2.244e+00           0.016          -0.086          -0.996       1.899e-02         -0.0235
  17       1.537e+01      -2.665e+01       2.235e+00           0.061          -0.070          -0.996       2.251e-02         -0.0259
  18       1.511e+01      -2.665e+01       2.219e+00           0.063          -0.069          -0.996       2.469e-02         -0.0377
  19       1.484e+01      -2.665e+01       2.204e+00           0.048          -0.075          -0.996       2.541e-02         -0.0544
  20       1.456e+01      -2.665e+01       2.195e+00           0.017          -0.089          -0.996       2.465e-02         -0.0732
  21       1.431e+01      -2.665e+01       2.196e+00          -0.027          -0.108          -0.994       2.249e-02         -0.0835
  22       1.408e+01      -2.665e+01       2.207e+00          -0.074          -0.130          -0.989       1.907e-02         -0.0838
  23       1.390e+01      -2.665e+01       2.226e+00          -0.137          -0.160          -0.978       1.459e-02         -0.0781
  24       1.377e+01      -2.664e+01       2.251e+00          -0.287          -0.230          -0.930       9.506e-03          0.0010
  25       1.370e+01      -2.664e+01       2.287e+00          -0.722          -0.418          -0.552       5.221e-03          0.6005
  26       1.370e+01      -2.664e+01       2.328e+00          -0.722          -0.318           0.615       5.218e-03         -0.1862
  27       1.377e+01      -2.663e+01       2.363e+00          -0.288          -0.068           0.955       9.499e-03         -0.7791
  28       1.390e+01      -2.663e+01       2.389e+00          -0.141           0.009           0.990       1.458e-02         -0.4509
  29       1.408e+01      -2.663e+01       2.408e+00          -0.074           0.042           0.996       1.903e-02         -0.3310
  30       1.431e+01      -2.663e+01       2.419e+00          -0.024           0.065           0.998       2.243e-02         -0.2835
  31       1.456e+01      -2.663e+01       2.420e+00           0.015           0.083           0.996       2.459e-02         -0.2611
  32       1.484e+01      -2.663e+01       2.410e+00           0.055           0.100           0.993       2.537e-02         -0.2558
  33       1.511e+01      -2.663e+01       2.389e+00           0.102           0.118           0.988       2.474e-02         -0.2585
  34       1.537e+01      -2.664e+01       2.355e+00           0.162           0.140           0.977       2.277e-02         -0.2519
  35       1.559e+01      -2.664e+01       2.313e+00           0.209           0.156           0.965       1.946e-02         -0.2601
  36       1.578e+01      -2.664e+01       2.270e+00           0.247           0.168           0.954       1.493e-02         -0.2853
  37       1.590e+01      -2.665e+01       2.236e+00           0.280           0.177           0.943       9.419e-03         -0.3153
  38       1.597e+01      -2.665e+01       2.213e+00           0.461           0.227           0.858       3.498e-03         -0.1563
Strip 2
  39       1.591e+01      -2.647e+01       2.188e+00          -0.083          -0.121          -0.989       9.341e-03         -0.0653
  40       1.584e+01      -2.647e+01       2.201e+00          -0.219          -0.161          -0.962       2.814e-02          0.0654
  41       1.571e+01      -2.646e+01       2.220e+00          -0.106          -0.127          -0.986       4.411e-02          0.1510
  42       1.553e+01      -2.646e+01       2.227e+00           0.016          -0.086          -0.996       5.775e-02          0.1434
  43       1.530e+01      -2.646e+01       2.218e+00           0.061          -0.070          -0.996       6.844e-02          0.0847
  44       1.504e+01      -2.647e+01       2.202e+00           0.063          -0.069          -0.996       7.507e-02          0.0249
  45       1.476e+01      -2.647e+01       2.187e+00           0.048          -0.075          -0.996       7.726e-02         -0.0255
  46       1.448e+01      -2.647e+01       2.177e+00           0.017          -0.089          -0.996       7.495e-02         -0.0664
  47       1.422e+01      -2.647e+01       2.178e+00          -0.027          -0.108          -0.994       6.838e-02         -0.0866
  48       1.399e+01      -2.647e+01       2.190e+00          -0.074          -0.130          -0.989       5.798e-02         -0.0827
  49       1.381e+01      -2.646e+01       2.209e+00          -0.137          -0.160          -0.978       4.438e-02         -0.0489
  50       1.368e+01      -2.646e+01       2.235e+00          -0.287          -0.230          -0.930       2.891e-02          0.1063
  51       1.361e+01      -2.646e+01       2.271e+00          -0.721          -0.418          -0.552       1.588e-02          0.6823
  52       1.361e+01      -2.646e+01       2.312e+00          -0.722          -0.318           0.615       1.586e-02         -0.3361
  53       1.368e+01      -2.645e+01       2.348e+00          -0.288          -0.068           0.955       2.888e-02         -0.9507
  54       1.381e+01      -2.645e+01       2.375e+00          -0.141           0.009           0.990       4.432e-02         -0.5923
  55       1.399e+01      -2.645e+01       2.394e+00          -0.074           0.042           0.996       5.785e-02         -0.4426
  56       1.422e+01      -2.645e+01       2.405e+00          -0.024           0.065           0.998       6.821e-02         -0.3710
  57       1.448e+01      -2.645e+01       2.406e+00           0.015           0.083           0.996       7.477e-02         -0.3357
  58       1.476e+01      -2.645e+01       2.396e+00           0.055           0.100           0.993       7.713e-02         -0.3256
  59       1.504e+01      -2.645e+01       2.374e+00           0.102           0.118           0.988       7.522e-02         -0.3256
  60       1.530e+01      -2.645e+01       2.340e+00           0.162           0.140           0.977       6.925e-02         -0.3031
  61       1.553e+01      -2.646e+01       2.297e+00           0.209           0.156           0.965       5.917e-02         -0.2692
  62       1.571e+01      -2.646e+01       2.254e+00           0.247           0.168           0.954       4.540e-02         -0.2307
  63       1.584e+01      -2.646e+01       2.219e+00           0.280           0.177           0.943       2.864e-02         -0.2177
  64       1.591e+01      -2.647e+01       2.196e+00           0.461           0.227           0.858       1.064e-02         -0.0516
Strip 3
  65       1.580e+01      -2.610e+01       2.153e+00          -0.083          -0.121          -0.989       1.598e-02          0.0317
  66       1.573e+01      -2.610e+01       2.166e+00          -0.219          -0.161          -0.962       4.815e-02          0.1877
  67       1.559e+01      -2.610e+01       2.187e+00          -0.106          -0.127          -0.986       7.547e-02          0.2763
  68       1.540e+01      -2.610e+01       2.194e+00           0.016          -0.086          -0.996       9.878e-02          0.2429
  69       1.517e+01      -2.610e+01       2.184e+00           0.061          -0.070          -0.996       1.171e-01          0.1541
  70       1.490e+01      -2.610e+01       2.168e+00           0.063          -0.069          -0.996       1.284e-01          0.0699
  71       1.461e+01      -2.610e+01       2.152e+00           0.048          -0.075          -0.996       1.322e-01          0.0028
  72       1.432e+01      -2.610e+01       2.142e+00           0.017          -0.089          -0.996       1.282e-01         -0.0459
  73       1.406e+01      -2.610e+01       2.144e+00          -0.027          -0.108          -0.994       1.170e-01         -0.0608
  74       1.382e+01      -2.610e+01       2.155e+00          -0.074          -0.130          -0.989       9.920e-02         -0.0359
  75       1.363e+01      -2.610e+01       2.175e+00          -0.137          -0.160          -0.978       7.594e-02          0.0291
  76       1.349e+01      -2.610e+01       2.202e+00          -0.286          -0.230          -0.930       4.948e-02          0.2205
  77       1.342e+01      -2.610e+01       2.239e+00          -0.721          -0.418          -0.553       2.719e-02          0.7530
  78       1.342e+01      -2.609e+01       2.282e+00          -0.723          -0.318           0.614       2.711e-02         -0.4641
  79       1.349e+01      -2.609e+01       2.319e+00          -0.288          -0.068           0.955       4.937e-02         -1.0729
  80       1.363e+01      -2.609e+01       2.346e+00          -0.141           0.009           0.990       7.580e-02         -0.6892
  81       1.382e+01      -2.609e+01       2.366e+00          -0.074           0.042           0.996       9.894e-02         -0.5401
  82       1.406e+01      -2.609e+01       2.377e+00          -0.024           0.065           0.998       1.167e-01         -0.4639
  83       1.432e+01      -2.609e+01       2.378e+00           0.015           0.083           0.996       1.279e-01         -0.4170
  84       1.461e+01      -2.609e+01       2.368e+00           0.055           0.100           0.993       1.320e-01         -0.3923
  85       1.490e+01      -2.609e+01       2.345e+00           0.102           0.118           0.988       1.287e-01         -0.3722
  86       1.517e+01      -2.609e+01       2.310e+00           0.162           0.140           0.977       1.185e-01         -0.3182
  87       1.540e+01      -2.609e+01       2.266e+00           0.209           0.156           0.965       1.013e-01         -0.2419
  88       1.559e+01      -2.610e+01       2.221e+00           0.247           0.168           0.954       7.768e-02         -0.1593
  89       1.573e+01      -2.610e+01       2.185e+00           0.280           0.177           0.943       4.902e-02         -0.1122
  90       1.580e+01      -2.610e+01       2.161e+00           0.460           0.226           0.858       1.821e-02          0.0533
Strip 4
  91       1.563e+01      -2.556e+01       2.102e+00          -0.083          -0.121          -0.989       2.322e-02          0.0510
  92       1.555e+01      -2.556e+01       2.115e+00          -0.219          -0.161          -0.962       6.998e-02          0.2152
  93       1.541e+01      -2.556e+01       2.137e+00          -0.106          -0.127          -0.986       1.097e-01          0.3093
  94       1.522e+01      -2.556e+01       2.144e+00           0.016          -0.086          -0.996       1.435e-01          0.2758
  95       1.497e+01      -2.556e+01       2.134e+00           0.061          -0.070          -0.996       1.701e-01          0.1837
  96       1.469e+01      -2.556e+01       2.117e+00           0.063          -0.069          -0.996       1.866e-01          0.0959
  97       1.439e+01      -2.556e+01       2.100e+00           0.048          -0.075          -0.996       1.920e-01          0.0269
  98       1.409e+01      -2.556e+01       2.090e+00           0.017          -0.089          -0.996       1.863e-01         -0.0196
  99       1.381e+01      -2.556e+01       2.091e+00          -0.027          -0.108          -0.994       1.700e-01         -0.0280
 100       1.356e+01      -2.556e+01       2.103e+00          -0.074          -0.130          -0.989       1.442e-01          0.0047
 101       1.336e+01      -2.556e+01       2.124e+00          -0.137          -0.160          -0.978       1.104e-01          0.0780
 102       1.322e+01      -2.556e+01       2.152e+00          -0.286          -0.230          -0.930       7.194e-02          0.2832
 103       1.315e+01      -2.556e+01       2.191e+00          -0.720          -0.418          -0.554       3.955e-02          0.7736
 104       1.315e+01      -2.555e+01       2.236e+00          -0.723          -0.319           0.612       3.935e-02         -0.5832
 105       1.322e+01      -2.555e+01       2.274e+00          -0.288          -0.068           0.955       7.168e-02         -1.1719
 106       1.336e+01      -2.555e+01       2.303e+00          -0.141           0.009           0.990       1.101e-01         -0.7532
 107       1.356e+01      -2.555e+01       2.324e+00          -0.074           0.042           0.996       1.437e-01         -0.5990
 108       1.381e+01      -2.554e+01       2.335e+00          -0.024           0.065           0.998       1.695e-01         -0.5245
 109       1.409e+01      -2.554e+01       2.336e+00           0.015           0.083           0.996       1.858e-01         -0.4780
 110       1.439e+01      -2.555e+01       2.326e+00           0.055           0.100           0.993       1.917e-01         -0.4496
 111       1.469e+01      -2.555e+01       2.302e+00           0.102           0.118           0.988       1.870e-01         -0.4212
 112       1.497e+01      -2.555e+01       2.265e+00           0.162           0.140           0.977       1.722e-01         -0.3546
 113       1.522e+01      -2.555e+01       2.219e+00           0.209           0.156           0.965       1.472e-01         -0.2625
 114       1.541e+01      -2.556e+01       2.173e+00           0.247           0.168           0.954       1.129e-01         -0.1646
 115       1.555e+01      -2.556e+01       2.135e+00           0.280           0.177           0.944       7.125e-02         -0.1043
 116       1.563e+01      -2.556e+01       2.110e+00           0.460           0.226           0.859       2.647e-02          0.0622
Strip 5
 117       1.540e+01      -2.485e+01       2.033e+00          -0.083          -0.121          -0.989       3.127e-02          0.0562
 118       1.533e+01      -2.485e+01       2.048e+00          -0.219          -0.161          -0.962       9.426e-02          0.2244
 119       1.518e+01      -2.484e+01       2.070e+00          -0.106          -0.127          -0.986       1.477e-01          0.3219
 120       1.497e+01      -2.484e+01       2.078e+00           0.016          -0.086          -0.996       1.932e-01          0.2902
 121       1.470e+01      -2.484e+01       2.068e+00           0.061          -0.070          -0.996       2.290e-01          0.1992
 122       1.441e+01      -2.485e+01       2.049e+00           0.063          -0.069          -0.996       2.511e-01          0.1126
 123       1.409e+01      -2.485e+01       2.032e+00           0.048          -0.075          -0.996       2.585e-01          0.0454
 124       1.378e+01      -2.485e+01       2.021e+00           0.017          -0.089          -0.996       2.508e-01          0.0014
 125       1.348e+01      -2.485e+01       2.022e+00          -0.027          -0.108          -0.994       2.289e-01         -0.0046
 126       1.322e+01      -2.485e+01       2.035e+00          -0.074          -0.130          -0.989       1.941e-01          0.0302
 127       1.300e+01      -2.484e+01       2.057e+00          -0.137          -0.160          -0.978       1.487e-01          0.1071
 128       1.286e+01      -2.484e+01       2.087e+00          -0.286          -0.230          -0.930       9.695e-02          0.3205
 129       1.278e+01      -2.484e+01       2.127e+00          -0.719          -0.417          -0.556       5.332e-02          0.7803
 130       1.278e+01      -2.484e+01       2.175e+00          -0.724          -0.319           0.611       5.291e-02         -0.6712
 131       1.286e+01      -2.483e+01       2.216e+00          -0.289          -0.068           0.955       9.644e-02         -1.2431
 132       1.300e+01      -2.483e+01       2.246e+00          -0.142           0.008           0.990       1.482e-01         -0.7959
 133       1.322e+01      -2.483e+01       2.268e+00          -0.074           0.042           0.996       1.935e-01         -0.6353
 134       1.348e+01      -2.483e+01       2.280e+00          -0.024           0.065           0.998       2.282e-01         -0.5600
 135       1.378e+01      -2.483e+01       2.282e+00           0.015           0.083           0.996       2.502e-01         -0.5141
 136       1.409e+01      -2.483e+01       2.270e+00           0.055           0.100           0.993       2.582e-01         -0.4853
 137       1.441e+01      -2.483e+01       2.246e+00           0.102           0.118           0.988       2.519e-01         -0.4539
 138       1.470e+01      -2.483e+01       2.206e+00           0.162           0.140           0.977       2.319e-01         -0.3810
 139       1.497e+01      -2.484e+01       2.157e+00           0.209           0.156           0.965       1.982e-01         -0.2810
 140       1.518e+01      -2.484e+01       2.109e+00           0.247           0.168           0.954       1.521e-01         -0.1754
 141       1.533e+01      -2.484e+01       2.069e+00           0.280           0.177           0.944       9.598e-02         -0.1084
 142       1.540e+01      -2.485e+01       2.042e+00           0.460           0.226           0.859       3.567e-02          0.0592
Strip 6
 143       1.512e+01      -2.396e+01       1.949e+00          -0.083          -0.121          -0.989       4.031e-02          0.0581
 144       1.504e+01      -2.396e+01       1.964e+00          -0.219          -0.161          -0.962       1.215e-01          0.2286
 145       1.488e+01      -2.396e+01       1.988e+00          -0.106          -0.127          -0.986       1.904e-01          0.3281
 146       1.466e+01      -2.396e+01       1.996e+00           0.016          -0.086          -0.996       2.490e-01          0.2978
 147       1.438e+01      -2.396e+01       1.985e+00           0.061          -0.070          -0.996       2.950e-01          0.2081
 148       1.406e+01      -2.396e+01       1.966e+00           0.063          -0.069          -0.996       3.236e-01          0.1228
 149       1.372e+01      -2.396e+01       1.947e+00           0.048          -0.075          -0.996       3.331e-01          0.0570
 150       1.339e+01      -2.396e+01       1.936e+00           0.017          -0.089          -0.996       3.232e-01          0.0142
 151       1.307e+01      -2.396e+01       1.937e+00          -0.027          -0.108          -0.994       2.950e-01          0.0090
 152       1.279e+01      -2.396e+01       1.951e+00          -0.074          -0.130          -0.989       2.503e-01          0.0445
 153       1.257e+01      -2.396e+01       1.974e+00          -0.137          -0.160          -0.978       1.917e-01          0.1232
 154       1.241e+01      -2.396e+01       2.006e+00          -0.286          -0.230          -0.930       1.250e-01          0.3408
 155       1.233e+01      -2.395e+01       2.049e+00          -0.718          -0.417          -0.557       6.881e-02          0.7824
 156       1.233e+01      -2.395e+01       2.100e+00          -0.725          -0.320           0.609       6.809e-02         -0.7245
 157       1.241e+01      -2.395e+01       2.144e+00          -0.289          -0.068           0.955       1.242e-01         -1.2869
 158       1.257e+01      -2.395e+01       2.176e+00          -0.142           0.008           0.990       1.909e-01         -0.8211
 159       1.279e+01      -2.395e+01       2.199e+00          -0.074           0.042           0.996       2.493e-01         -0.6562
 160       1.307e+01      -2.394e+01       2.212e+00          -0.024           0.065           0.998       2.941e-01         -0.5798
 161       1.339e+01      -2.394e+01       2.214e+00           0.015           0.083           0.996       3.225e-01         -0.5337
 162       1.372e+01      -2.395e+01       2.202e+00           0.055           0.100           0.993       3.328e-01         -0.5046
 163       1.406e+01      -2.395e+01       2.175e+00           0.102           0.118           0.988       3.247e-01         -0.4718
 164       1.438e+01      -2.395e+01       2.133e+00           0.162           0.140           0.977       2.990e-01         -0.3960
 165       1.466e+01      -2.395e+01       2.081e+00           0.209           0.156           0.965       2.556e-01         -0.2920
 166       1.488e+01      -2.396e+01       2.029e+00           0.247           0.168           0.954       1.961e-01         -0.1827
 167       1.504e+01      -2.396e+01       1.986e+00           0.279           0.177           0.944       1.238e-01         -0.1122
 168       1.512e+01      -2.396e+01       1.958e+00           0.459           0.226           0.859       4.601e-02          0.0560
Strip 7
 169       1.479e+01      -2.291e+01       1.848e+00          -0.083          -0.121          -0.989       5.046e-02          0.0592
 170       1.470e+01      -2.291e+01       1.865e+00          -0.219          -0.161          -0.962       1.522e-01          0.2307
 171       1.454e+01      -2.291e+01       1.891e+00          -0.106          -0.127          -0.986       2.384e-01          0.3313
 172       1.429e+01      -2.291e+01       1.900e+00           0.016          -0.086          -0.996       3.117e-01          0.3019
 173       1.399e+01      -2.291e+01       1.888e+00           0.061          -0.070          -0.996       3.692e-01          0.2130
 174       1.365e+01      -2.291e+01       1.867e+00           0.063          -0.069          -0.996       4.050e-01          0.1284
 175       1.329e+01      -2.291e+01       1.846e+00           0.048          -0.075          -0.996       4.169e-01          0.0631
 176       1.293e+01      -2.291e+01       1.835e+00           0.017          -0.089          -0.996       4.045e-01          0.0207
 177       1.259e+01      -2.291e+01       1.836e+00          -0.027          -0.108          -0.994       3.693e-01          0.0157
 178       1.229e+01      -2.291e+01       1.851e+00          -0.074          -0.130          -0.989       3.133e-01          0.0513
 179       1.205e+01      -2.291e+01       1.875e+00          -0.137          -0.160          -0.978       2.400e-01          0.1305
 180       1.188e+01      -2.291e+01       1.910e+00          -0.285          -0.230          -0.930       1.567e-01          0.3494
 181       1.179e+01      -2.291e+01       1.956e+00          -0.717          -0.417          -0.559       8.626e-02          0.7832
 182       1.179e+01      -2.290e+01       2.011e+00          -0.726          -0.321           0.608       8.510e-02         -0.7471
 183       1.188e+01      -2.290e+01       2.058e+00          -0.289          -0.069           0.955       1.553e-01         -1.3074
 184       1.205e+01      -2.290e+01       2.093e+00          -0.142           0.008           0.990       2.388e-01         -0.8330
 185       1.229e+01      -2.290e+01       2.118e+00          -0.074           0.042           0.996       3.120e-01         -0.6662
 186       1.259e+01      -2.290e+01       2.132e+00          -0.024           0.065           0.998       3.681e-01         -0.5895
 187       1.293e+01      -2.290e+01       2.133e+00           0.015           0.083           0.996       4.037e-01         -0.5433
 188       1.329e+01      -2.290e+01       2.120e+00           0.055           0.100           0.993       4.166e-01         -0.5140
 189       1.365e+01      -2.290e+01       2.092e+00           0.102           0.118           0.988       4.065e-01         -0.4806
 190       1.399e+01      -2.290e+01       2.047e+00           0.161           0.140           0.977       3.745e-01         -0.4033
 191       1.429e+01      -2.290e+01       1.991e+00           0.209           0.156           0.965       3.201e-01         -0.2976
 192       1.454e+01      -2.291e+01       1.935e+00           0.247           0.168           0.954       2.456e-01         -0.1865
 193       1.470e+01      -2.291e+01       1.889e+00           0.279           0.177           0.944       1.550e-01         -0.1143
 194       1.479e+01      -2.291e+01       1.858e+00           0.459           0.226           0.859       5.764e-02          0.0542
Strip 8
 195       1.441e+01      -2.171e+01       1.733e+00          -0.083          -0.121          -0.989       6.183e-02          0.0596
 196       1.432e+01      -2.171e+01       1.751e+00          -0.219          -0.161          -0.962       1.865e-01          0.2317
 197       1.414e+01      -2.170e+01       1.779e+00          -0.106          -0.127          -0.986       2.921e-01          0.3330
 198       1.387e+01      -2.170e+01       1.789e+00           0.016          -0.086          -0.996       3.818e-01          0.3040
 199       1.355e+01      -2.170e+01       1.776e+00           0.061          -0.070          -0.996       4.523e-01          0.2154
 200       1.318e+01      -2.171e+01       1.753e+00           0.063          -0.069          -0.996       4.960e-01          0.1309
 201       1.279e+01      -2.171e+01       1.731e+00           0.048          -0.075          -0.996       5.106e-01          0.0657
 202       1.240e+01      -2.171e+01       1.718e+00           0.017          -0.089          -0.996       4.955e-01          0.0231
 203       1.203e+01      -2.171e+01       1.720e+00          -0.027          -0.108          -0.994       4.524e-01          0.0178
 204       1.171e+01      -2.171e+01       1.736e+00          -0.074          -0.130          -0.989       3.839e-01          0.0529
 205       1.145e+01      -2.170e+01       1.762e+00          -0.137          -0.159          -0.978       2.942e-01          0.1315
 206       1.127e+01      -2.170e+01       1.799e+00          -0.285          -0.230          -0.931       1.921e-01          0.3496
 207       1.117e+01      -2.170e+01       1.850e+00          -0.716          -0.416          -0.561       1.058e-01          0.7837
 208       1.117e+01      -2.170e+01       1.909e+00          -0.728          -0.321           0.606       1.041e-01         -0.7458
 209       1.127e+01      -2.170e+01       1.960e+00          -0.290          -0.069           0.955       1.900e-01         -1.3100
 210       1.145e+01      -2.169e+01       1.997e+00          -0.142           0.008           0.990       2.924e-01         -0.8351
 211       1.171e+01      -2.169e+01       2.024e+00          -0.074           0.042           0.996       3.821e-01         -0.6688
 212       1.203e+01      -2.169e+01       2.039e+00          -0.024           0.065           0.998       4.509e-01         -0.5926
 213       1.240e+01      -2.169e+01       2.041e+00           0.015           0.083           0.996       4.946e-01         -0.5469
 214       1.279e+01      -2.169e+01       2.027e+00           0.055           0.100           0.993       5.105e-01         -0.5177
 215       1.318e+01      -2.169e+01       1.996e+00           0.102           0.118           0.988       4.981e-01         -0.4841
 216       1.355e+01      -2.170e+01       1.948e+00           0.161           0.140           0.977       4.589e-01         -0.4064
 217       1.387e+01      -2.170e+01       1.887e+00           0.209           0.156           0.966       3.923e-01         -0.3000
 218       1.414e+01      -2.170e+01       1.826e+00           0.247           0.168           0.955       3.010e-01         -0.1882
 219       1.432e+01      -2.170e+01       1.777e+00           0.279           0.177           0.944       1.900e-01         -0.1152
 220       1.441e+01      -2.171e+01       1.744e+00           0.458           0.226           0.860       7.067e-02          0.0532
Strip 9
 221       1.399e+01      -2.035e+01       1.604e+00          -0.083          -0.121          -0.989       7.445e-02          0.0598
 222       1.388e+01      -2.035e+01       1.623e+00          -0.219          -0.161          -0.962       2.247e-01          0.2321
 223       1.369e+01      -2.035e+01       1.653e+00          -0.106          -0.127          -0.986       3.517e-01          0.3337
 224       1.340e+01      -2.035e+01       1.664e+00           0.016          -0.086          -0.996       4.596e-01          0.3049
 225       1.305e+01      -2.035e+01       1.650e+00           0.061          -0.070          -0.996       5.444e-01          0.2162
 226       1.265e+01      -2.035e+01       1.625e+00           0.063          -0.069          -0.996       5.971e-01          0.1316
 227       1.223e+01      -2.035e+01       1.602e+00           0.048          -0.075          -0.996       6.146e-01          0.0660
 228       1.181e+01      -2.035e+01       1.588e+00           0.017          -0.089          -0.996       5.965e-01          0.0230
 229       1.141e+01      -2.035e+01       1.589e+00          -0.027          -0.108          -0.994       5.447e-01          0.0169
 230       1.106e+01      -2.035e+01       1.606e+00          -0.074          -0.130          -0.989       4.623e-01          0.0510
 231       1.078e+01      -2.035e+01       1.635e+00          -0.137          -0.159          -0.978       3.543e-01          0.1281
 232       1.058e+01      -2.035e+01       1.675e+00          -0.285          -0.229          -0.931       2.315e-01          0.3438
 233       1.048e+01      -2.035e+01       1.730e+00          -0.715          -0.416          -0.562       1.276e-01          0.7840
 234       1.048e+01      -2.034e+01       1.794e+00          -0.729          -0.322           0.605       1.251e-01         -0.7265
 235       1.058e+01      -2.034e+01       1.849e+00          -0.290          -0.069           0.955       2.286e-01         -1.2994
 236       1.078e+01      -2.034e+01       1.890e+00          -0.142           0.008           0.990       3.518e-01         -0.8302
 237       1.106e+01      -2.034e+01       1.919e+00          -0.074           0.042           0.996       4.599e-01         -0.6663
 238       1.141e+01      -2.034e+01       1.935e+00          -0.024           0.065           0.998       5.428e-01         -0.5914
 239       1.181e+01      -2.034e+01       1.937e+00           0.015           0.083           0.996       5.954e-01         -0.5466
 240       1.223e+01      -2.034e+01       1.922e+00           0.055           0.100           0.993       6.146e-01         -0.5180
 241       1.265e+01      -2.034e+01       1.889e+00           0.102           0.118           0.988       5.999e-01         -0.4846
 242       1.305e+01      -2.034e+01       1.836e+00           0.161           0.140           0.977       5.527e-01         -0.4069
 243       1.340e+01      -2.035e+01       1.771e+00           0.209           0.156           0.966       4.725e-01         -0.3006
 244       1.369e+01      -2.035e+01       1.705e+00           0.246           0.168           0.955       3.626e-01         -0.1887
 245       1.388e+01      -2.035e+01       1.651e+00           0.279           0.177           0.944       2.289e-01         -0.1154
 246       1.399e+01      -2.035e+01       1.615e+00           0.458           0.226           0.860       8.514e-02          0.0526
Strip 10
 247       1.352e+01      -1.886e+01       1.461e+00          -0.083          -0.121          -0.989       8.830e-02          0.0596
 248       1.340e+01      -1.886e+01       1.482e+00          -0.219          -0.161          -0.962       2.665e-01          0.2321
 249       1.319e+01      -1.886e+01       1.515e+00          -0.106          -0.127          -0.986       4.172e-01          0.3338
 250       1.288e+01      -1.886e+01       1.526e+00           0.016          -0.086          -0.996       5.451e-01          0.3050
 251       1.250e+01      -1.886e+01       1.511e+00           0.061          -0.070          -0.996       6.455e-01          0.2161
 252       1.207e+01      -1.886e+01       1.484e+00           0.063          -0.069          -0.996       7.080e-01          0.1310
 253       1.161e+01      -1.886e+01       1.459e+00           0.048          -0.075          -0.996       7.288e-01          0.0649
 254       1.116e+01      -1.886e+01       1.444e+00           0.017          -0.089          -0.996       7.074e-01          0.0210
 255       1.073e+01      -1.886e+01       1.445e+00          -0.027          -0.108          -0.994       6.460e-01          0.0139
 256       1.035e+01      -1.886e+01       1.464e+00          -0.074          -0.130          -0.989       5.484e-01          0.0466
 257       1.004e+01      -1.886e+01       1.495e+00          -0.137          -0.159          -0.978       4.204e-01          0.1215
 258       9.825e+00      -1.886e+01       1.539e+00          -0.285          -0.229          -0.931       2.747e-01          0.3335
 259       9.714e+00      -1.885e+01       1.598e+00          -0.714          -0.416          -0.564       1.515e-01          0.7840
 260       9.714e+00      -1.885e+01       1.667e+00          -0.730          -0.323           0.603       1.482e-01         -0.6942
 261       9.825e+00      -1.885e+01       1.727e+00          -0.290          -0.069           0.955       2.708e-01         -1.2788
 262       1.004e+01      -1.885e+01       1.771e+00          -0.142           0.008           0.990       4.171e-01         -0.8202
 263       1.035e+01      -1.885e+01       1.803e+00          -0.074           0.042           0.996       5.452e-01         -0.6601
 264       1.073e+01      -1.885e+01       1.821e+00          -0.024           0.065           0.998       6.436e-01         -0.5873
 265       1.116e+01      -1.885e+01       1.822e+00           0.015           0.083           0.996       7.061e-01         -0.5437
 266       1.161e+01      -1.885e+01       1.806e+00           0.055           0.100           0.993       7.290e-01         -0.5160
 267       1.207e+01      -1.885e+01       1.770e+00           0.102           0.118           0.988       7.116e-01         -0.4833
 268       1.250e+01      -1.885e+01       1.713e+00           0.161           0.140           0.977       6.556e-01         -0.4061
 269       1.288e+01      -1.885e+01       1.642e+00           0.208           0.156           0.966       5.606e-01         -0.3001
 270       1.319e+01      -1.886e+01       1.571e+00           0.246           0.168           0.955       4.302e-01         -0.1886
 271       1.340e+01      -1.886e+01       1.513e+00           0.279           0.177           0.944       2.715e-01         -0.1154
 272       1.352e+01      -1.886e+01       1.474e+00           0.458           0.226           0.860       1.010e-01          0.0521
Strip 11
 273       1.300e+01      -1.724e+01       1.306e+00          -0.083          -0.121          -0.989       1.033e-01          0.0593
 274       1.288e+01      -1.724e+01       1.329e+00          -0.218          -0.161          -0.962       3.119e-01          0.2318
 275       1.265e+01      -1.724e+01       1.365e+00          -0.106          -0.127          -0.986       4.882e-01          0.3336
 276       1.232e+01      -1.724e+01       1.377e+00           0.016          -0.086          -0.996       6.377e-01          0.3047
 277       1.191e+01      -1.724e+01       1.360e+00           0.061          -0.070          -0.996       7.551e-01          0.2153
 278       1.144e+01      -1.724e+01       1.331e+00           0.063          -0.069          -0.996       8.282e-01          0.1296
 279       1.094e+01      -1.724e+01       1.304e+00           0.048          -0.075          -0.996       8.525e-01          0.0627
 280       1.045e+01      -1.724e+01       1.287e+00           0.017          -0.089          -0.996       8.275e-01          0.0178
 281       9.979e+00      -1.724e+01       1.289e+00          -0.027          -0.108          -0.994       7.558e-01          0.0094
 282       9.568e+00      -1.724e+01       1.309e+00          -0.074          -0.130          -0.989       6.417e-01          0.0404
 283       9.236e+00      -1.724e+01       1.343e+00          -0.137          -0.159          -0.978       4.920e-01          0.1124
 284       9.003e+00      -1.723e+01       1.390e+00          -0.284          -0.229          -0.931       3.217e-01          0.3195
 285       8.884e+00      -1.723e+01       1.455e+00          -0.713          -0.415          -0.565       1.775e-01          0.7832
 286       8.884e+00      -1.723e+01       1.530e+00          -0.730          -0.323           0.602       1.732e-01         -0.6516
 287       9.003e+00      -1.723e+01       1.595e+00          -0.290          -0.069           0.954       3.166e-01         -1.2504
 288       9.236e+00      -1.723e+01       1.642e+00          -0.142           0.008           0.990       4.878e-01         -0.8061
 289       9.568e+00      -1.723e+01       1.677e+00          -0.074           0.042           0.996       6.378e-01         -0.6512
 290       9.979e+00      -1.723e+01       1.696e+00          -0.024           0.065           0.998       7.530e-01         -0.5810
 291       1.045e+01      -1.723e+01       1.698e+00           0.015           0.083           0.996       8.262e-01         -0.5392
 292       1.094e+01      -1.723e+01       1.680e+00           0.055           0.100           0.993       8.530e-01         -0.5126
 293       1.144e+01      -1.723e+01       1.641e+00           0.102           0.118           0.988       8.327e-01         -0.4807
 294       1.191e+01      -1.723e+01       1.579e+00           0.161           0.140           0.977       7.673e-01         -0.4044
 295       1.232e+01      -1.723e+01       1.502e+00           0.208           0.156           0.966       6.561e-01         -0.2990
 296       1.265e+01      -1.723e+01       1.425e+00           0.246           0.167           0.955       5.035e-01         -0.1880
 297       1.288e+01      -1.724e+01       1.362e+00           0.279           0.177           0.944       3.178e-01         -0.1153
 298       1.300e+01      -1.724e+01       1.320e+00           0.457           0.226           0.860       1.183e-01          0.0516
Strip 12
 299       1.246e+01      -1.550e+01       1.140e+00          -0.083          -0.121          -0.989       1.194e-01          0.0588
 300       1.233e+01      -1.550e+01       1.165e+00          -0.218          -0.161          -0.963       3.605e-01          0.2313
 301       1.207e+01      -1.550e+01       1.203e+00          -0.106          -0.127          -0.986       5.641e-01          0.3331
 302       1.172e+01      -1.550e+01       1.217e+00           0.016          -0.086          -0.996       7.367e-01          0.3040
 303       1.127e+01      -1.550e+01       1.199e+00           0.061          -0.070          -0.996       8.722e-01          0.2141
 304       1.076e+01      -1.550e+01       1.167e+00           0.063          -0.069          -0.996       9.566e-01          0.1276
 305       1.022e+01      -1.550e+01       1.137e+00           0.048          -0.075          -0.996       9.848e-01          0.0597
 306       9.687e+00      -1.550e+01       1.120e+00           0.017          -0.089          -0.996       9.560e-01          0.0135
 307       9.180e+00      -1.550e+01       1.122e+00          -0.027          -0.108          -0.994       8.733e-01          0.0036
 308       8.734e+00      -1.550e+01       1.143e+00          -0.074          -0.130          -0.989       7.415e-01          0.0325
 309       8.374e+00      -1.550e+01       1.180e+00          -0.137          -0.159          -0.978       5.686e-01          0.1011
 310       8.122e+00      -1.550e+01       1.231e+00          -0.284          -0.229          -0.931       3.719e-01          0.3022
 311       7.993e+00      -1.549e+01       1.301e+00          -0.712          -0.415          -0.566       2.053e-01          0.7813
 312       7.993e+00      -1.549e+01       1.382e+00          -0.731          -0.324           0.600       1.999e-01         -0.6008
 313       8.122e+00      -1.549e+01       1.453e+00          -0.291          -0.069           0.954       3.655e-01         -1.2155
 314       8.374e+00      -1.549e+01       1.504e+00          -0.142           0.008           0.990       5.633e-01         -0.7888
 315       8.734e+00      -1.549e+01       1.542e+00          -0.074           0.042           0.996       7.367e-01         -0.6401
 316       9.180e+00      -1.549e+01       1.563e+00          -0.024           0.065           0.998       8.698e-01         -0.5731
 317       9.687e+00      -1.549e+01       1.565e+00           0.015           0.083           0.996       9.545e-01         -0.5333
 318       1.022e+01      -1.549e+01       1.545e+00           0.055           0.100           0.993       9.856e-01         -0.5081
 319       1.076e+01      -1.549e+01       1.503e+00           0.102           0.118           0.988       9.621e-01         -0.4773
 320       1.127e+01      -1.549e+01       1.436e+00           0.161           0.140           0.977       8.867e-01         -0.4019
 321       1.172e+01      -1.549e+01       1.353e+00           0.208           0.156           0.966       7.583e-01         -0.2975
 322       1.207e+01      -1.549e+01       1.269e+00           0.246           0.167           0.955       5.820e-01         -0.1873
 323       1.233e+01      -1.550e+01       1.201e+00           0.279           0.177           0.944       3.674e-01         -0.1151
 324       1.246e+01      -1.550e+01       1.155e+00           0.457           0.226           0.860       1.368e-01          0.0511
Strip 13
 325       1.188e+01      -1.365e+01       9.639e-01          -0.083          -0.121          -0.989       1.363e-01          0.0578
 326       1.173e+01      -1.365e+01       9.906e-01          -0.218          -0.161          -0.963       4.117e-01          0.2305
 327       1.146e+01      -1.365e+01       1.032e+00          -0.106          -0.127          -0.986       6.441e-01          0.3324
 328       1.107e+01      -1.365e+01       1.047e+00           0.016          -0.086          -0.996       8.409e-01          0.3030
 329       1.059e+01      -1.365e+01       1.027e+00           0.061          -0.070          -0.996       9.956e-01          0.2125
 330       1.004e+01      -1.365e+01       9.931e-01           0.063          -0.069          -0.996       1.092e+00          0.1252
 331       9.461e+00      -1.365e+01       9.607e-01           0.048          -0.075          -0.996       1.124e+00          0.0560
 332       8.879e+00      -1.365e+01       9.415e-01           0.017          -0.089          -0.996       1.091e+00          0.0083
 333       8.331e+00      -1.365e+01       9.437e-01          -0.027          -0.108          -0.994       9.970e-01         -0.0033
 334       7.849e+00      -1.365e+01       9.674e-01          -0.074          -0.130          -0.989       8.466e-01          0.0232
 335       7.460e+00      -1.365e+01       1.007e+00          -0.137          -0.159          -0.978       6.493e-01          0.0878
 336       7.188e+00      -1.365e+01       1.062e+00          -0.284          -0.229          -0.931       4.248e-01          0.2816
 337       7.048e+00      -1.365e+01       1.138e+00          -0.711          -0.415          -0.567       2.346e-01          0.7778
 338       7.048e+00      -1.365e+01       1.226e+00          -0.732          -0.324           0.599       2.279e-01         -0.5427
 339       7.188e+00      -1.365e+01       1.302e+00          -0.291          -0.069           0.954       4.170e-01         -1.1746
 340       7.460e+00      -1.364e+01       1.358e+00          -0.142           0.008           0.990       6.428e-01         -0.7684
 341       7.849e+00      -1.364e+01       1.398e+00          -0.074           0.042           0.996       8.408e-01         -0.6269
 342       8.331e+00      -1.364e+01       1.421e+00          -0.024           0.065           0.998       9.929e-01         -0.5637
 343       8.879e+00      -1.364e+01       1.423e+00           0.015           0.083           0.996       1.090e+00         -0.5262
 344       9.461e+00      -1.364e+01       1.402e+00           0.055           0.100           0.993       1.125e+00         -0.5027
 345       1.004e+01      -1.364e+01       1.357e+00           0.102           0.118           0.988       1.099e+00         -0.4732
 346       1.059e+01      -1.365e+01       1.284e+00           0.161           0.140           0.977       1.013e+00         -0.3990
 347       1.107e+01      -1.365e+01       1.194e+00           0.208           0.156           0.966       8.659e-01         -0.2957
 348       1.146e+01      -1.365e+01       1.103e+00           0.246           0.167           0.955       6.646e-01         -0.1862
 349       1.173e+01      -1.365e+01       1.029e+00           0.278           0.177           0.944       4.195e-01         -0.1148
 350       1.188e+01      -1.365e+01       9.797e-01           0.457           0.226           0.861       1.562e-01          0.0507
Strip 14
 351       1.126e+01      -1.171e+01       7.787e-01          -0.083          -0.121          -0.989       1.538e-01          0.0571
 352       1.111e+01      -1.171e+01       8.075e-01          -0.218          -0.161          -0.963       4.647e-01          0.2298
 353       1.082e+01      -1.171e+01       8.524e-01          -0.106          -0.127          -0.986       7.270e-01          0.3315
 354       1.040e+01      -1.171e+01       8.680e-01           0.016          -0.086          -0.996       9.490e-01          0.3018
 355       9.879e+00      -1.171e+01       8.470e-01           0.061          -0.070          -0.996       1.124e+00          0.2106
 356       9.288e+00      -1.171e+01       8.103e-01           0.063          -0.069          -0.996       1.232e+00          0.1222
 357       8.660e+00      -1.171e+01       7.752e-01           0.048          -0.075          -0.996       1.269e+00          0.0516
 358       8.032e+00      -1.171e+01       7.545e-01           0.017          -0.089          -0.996       1.232e+00          0.0023
 359       7.440e+00      -1.171e+01       7.569e-01          -0.027          -0.108          -0.994       1.125e+00         -0.0114
 360       6.920e+00      -1.171e+01       7.824e-01          -0.074          -0.130          -0.989       9.556e-01          0.0123
 361       6.500e+00      -1.171e+01       8.255e-01          -0.137          -0.159          -0.978       7.330e-01          0.0723
 362       6.206e+00      -1.171e+01       8.850e-01          -0.284          -0.229          -0.931       4.797e-01          0.2575
 363       6.055e+00      -1.171e+01       9.667e-01          -0.711          -0.414          -0.568       2.650e-01          0.7723
 364       6.055e+00      -1.171e+01       1.062e+00          -0.733          -0.325           0.598       2.570e-01         -0.4775
 365       6.206e+00      -1.171e+01       1.144e+00          -0.291          -0.069           0.954       4.703e-01         -1.1275
 366       6.500e+00      -1.171e+01       1.204e+00          -0.142           0.008           0.990       7.253e-01         -0.7450
 367       6.920e+00      -1.171e+01       1.248e+00          -0.074           0.042           0.996       9.488e-01         -0.6118
 368       7.440e+00      -1.171e+01       1.272e+00          -0.024           0.065           0.998       1.121e+00         -0.5528
 369       8.032e+00      -1.171e+01       1.274e+00           0.015           0.083           0.996       1.230e+00         -0.5181
 370       8.660e+00      -1.171e+01       1.252e+00           0.055           0.100           0.993       1.270e+00         -0.4965
 371       9.288e+00      -1.171e+01       1.203e+00           0.102           0.118           0.988       1.240e+00         -0.4685
 372       9.879e+00      -1.171e+01       1.124e+00           0.161           0.140           0.977       1.143e+00         -0.3957
 373       1.040e+01      -1.171e+01       1.027e+00           0.208           0.156           0.966       9.775e-01         -0.2937
 374       1.082e+01      -1.171e+01       9.289e-01           0.246           0.167           0.955       7.503e-01         -0.1853
 375       1.111e+01      -1.171e+01       8.492e-01           0.278           0.177           0.944       4.736e-01         -0.1148
 376       1.126e+01      -1.171e+01       7.958e-01           0.456           0.225           0.861       1.764e-01          0.0496
Strip 15
 377       1.063e+01      -9.695e+00       5.859e-01          -0.083          -0.121          -0.989       1.717e-01          0.0560
 378       1.047e+01      -9.695e+00       6.168e-01          -0.218          -0.161          -0.963       5.189e-01          0.2288
 379       1.015e+01      -9.694e+00       6.652e-01          -0.106          -0.127          -0.986       8.115e-01          0.3304
 380       9.698e+00      -9.694e+00       6.820e-01           0.016          -0.086          -0.996       1.059e+00          0.3004
 381       9.137e+00      -9.694e+00       6.594e-01           0.061          -0.070          -0.996       1.254e+00          0.2084
 382       8.501e+00      -9.695e+00       6.198e-01           0.063          -0.069          -0.996       1.375e+00          0.1187
 383       7.825e+00      -9.695e+00       5.821e-01           0.048          -0.075          -0.996       1.416e+00          0.0465
 384       7.149e+00      -9.695e+00       5.598e-01           0.017          -0.089          -0.996       1.375e+00         -0.0048
 385       6.512e+00      -9.695e+00       5.624e-01          -0.027          -0.108          -0.994       1.256e+00         -0.0209
 386       5.952e+00      -9.695e+00       5.899e-01          -0.074          -0.130          -0.989       1.067e+00         -0.0003
 387       5.500e+00      -9.695e+00       6.362e-01          -0.137          -0.159          -0.978       8.183e-01          0.0542
 388       5.184e+00      -9.694e+00       7.003e-01          -0.284          -0.229          -0.931       5.357e-01          0.2290
 389       5.021e+00      -9.693e+00       7.883e-01          -0.710          -0.414          -0.569       2.960e-01          0.7640
 390       5.021e+00      -9.691e+00       8.905e-01          -0.733          -0.325           0.597       2.866e-01         -0.4045
 391       5.184e+00      -9.690e+00       9.787e-01          -0.291          -0.070           0.954       5.247e-01         -1.0736
 392       5.500e+00      -9.689e+00       1.044e+00          -0.142           0.008           0.990       8.093e-01         -0.7181
 393       5.952e+00      -9.689e+00       1.091e+00          -0.074           0.042           0.996       1.059e+00         -0.5945
 394       6.512e+00      -9.688e+00       1.117e+00          -0.024           0.065           0.998       1.251e+00         -0.5405
 395       7.149e+00      -9.688e+00       1.120e+00           0.015           0.083           0.996       1.373e+00         -0.5089
 396       7.825e+00      -9.689e+00       1.096e+00           0.055           0.100           0.993       1.418e+00         -0.4895
 397       8.501e+00      -9.689e+00       1.042e+00           0.102           0.118           0.988       1.384e+00         -0.4633
 398       9.137e+00      -9.690e+00       9.580e-01           0.161           0.140           0.977       1.276e+00         -0.3922
 399       9.698e+00      -9.692e+00       8.529e-01           0.208           0.156           0.966       1.091e+00         -0.2915
 400       1.015e+01      -9.693e+00       7.476e-01           0.246           0.167           0.955       8.377e-01         -0.1843
 401       1.047e+01      -9.694e+00       6.618e-01           0.278           0.177           0.944       5.288e-01         -0.1150
 402       1.063e+01      -9.695e+00       6.042e-01           0.456           0.225           0.861       1.970e-01          0.0485
Strip 16
 403       9.972e+00      -7.610e+00       3.867e-01          -0.083          -0.121          -0.989       1.896e-01          0.0544
 404       9.797e+00      -7.610e+00       4.199e-01          -0.218          -0.161          -0.963       5.731e-01          0.2275
 405       9.457e+00      -7.609e+00       4.719e-01          -0.106          -0.127          -0.986       8.962e-01          0.3292
 406       8.973e+00      -7.609e+00       4.899e-01           0.016          -0.086          -0.996       1.170e+00          0.2987
 407       8.371e+00      -7.609e+00       4.657e-01           0.061          -0.070          -0.996       1.385e+00          0.2056
 408       7.688e+00      -7.610e+00       4.231e-01           0.063          -0.069          -0.996       1.518e+00          0.1144
 409       6.962e+00      -7.610e+00       3.827e-01           0.048          -0.075          -0.996       1.563e+00          0.0405
 410       6.237e+00      -7.610e+00       3.587e-01           0.017          -0.089          -0.996       1.518e+00         -0.0131
 411       5.554e+00      -7.610e+00       3.615e-01          -0.027          -0.108          -0.994       1.387e+00         -0.0320
 412       4.952e+00      -7.610e+00       3.910e-01          -0.074          -0.130          -0.989       1.178e+00         -0.0152
 413       4.468e+00      -7.610e+00       4.407e-01          -0.137          -0.159          -0.978       9.038e-01          0.0329
 414       4.128e+00      -7.609e+00       5.095e-01          -0.284          -0.229          -0.931       5.918e-01          0.1952
 415       3.953e+00      -7.608e+00       6.040e-01          -0.710          -0.414          -0.570       3.271e-01          0.7516
 416       3.953e+00      -7.607e+00       7.138e-01          -0.734          -0.325           0.596       3.163e-01         -0.3223
 417       4.128e+00      -7.606e+00       8.085e-01          -0.291          -0.070           0.954       5.791e-01         -1.0111
 418       4.468e+00      -7.606e+00       8.784e-01          -0.142           0.008           0.990       8.935e-01         -0.6868
 419       4.952e+00      -7.605e+00       9.288e-01          -0.074           0.042           0.996       1.169e+00         -0.5744
 420       5.554e+00      -7.605e+00       9.572e-01          -0.024           0.065           0.998       1.381e+00         -0.5263
 421       6.237e+00      -7.605e+00       9.597e-01           0.015           0.083           0.996       1.516e+00         -0.4986
 422       6.962e+00      -7.605e+00       9.339e-01           0.055           0.100           0.993       1.566e+00         -0.4820
 423       7.688e+00      -7.606e+00       8.768e-01           0.102           0.118           0.988       1.529e+00         -0.4580
 424       8.371e+00      -7.607e+00       7.863e-01           0.161           0.140           0.977       1.409e+00         -0.3886
 425       8.973e+00      -7.608e+00       6.733e-01           0.208           0.156           0.966       1.205e+00         -0.2895
 426       9.457e+00      -7.609e+00       5.603e-01           0.246           0.167           0.955       9.253e-01         -0.1836
 427       9.797e+00      -7.609e+00       4.682e-01           0.278           0.177           0.944       5.841e-01         -0.1154
 428       9.972e+00      -7.610e+00       4.064e-01           0.456           0.225           0.861       2.176e-01          0.0468
Strip 17
 429       9.299e+00      -5.473e+00       1.825e-01          -0.083          -0.121          -0.989       2.072e-01          0.0523
 430       9.112e+00      -5.473e+00       2.181e-01          -0.218          -0.161          -0.963       6.263e-01          0.2258
 431       8.748e+00      -5.473e+00       2.737e-01          -0.106          -0.127          -0.986       9.793e-01          0.3275
 432       8.230e+00      -5.473e+00       2.930e-01           0.016          -0.086          -0.996       1.278e+00          0.2964
 433       7.586e+00      -5.473e+00       2.671e-01           0.061          -0.070          -0.996       1.513e+00          0.2021
 434       6.855e+00      -5.473e+00       2.216e-01           0.063          -0.069          -0.996       1.659e+00          0.1091
 435       6.079e+00      -5.473e+00       1.782e-01           0.048          -0.075          -0.996       1.708e+00          0.0330
 436       5.302e+00      -5.473e+00       1.526e-01           0.017          -0.089          -0.996       1.658e+00         -0.0232
 437       4.571e+00      -5.473e+00       1.556e-01          -0.027          -0.108          -0.994       1.515e+00         -0.0451
 438       3.928e+00      -5.473e+00       1.871e-01          -0.074          -0.130          -0.989       1.287e+00         -0.0326
 439       3.409e+00      -5.473e+00       2.404e-01          -0.137          -0.159          -0.978       9.877e-01          0.0077
 440       3.046e+00      -5.473e+00       3.140e-01          -0.283          -0.229          -0.931       6.469e-01          0.1540
 441       2.859e+00      -5.472e+00       4.152e-01          -0.709          -0.414          -0.571       3.576e-01          0.7332
 442       2.859e+00      -5.471e+00       5.326e-01          -0.734          -0.326           0.596       3.454e-01         -0.2272
 443       3.046e+00      -5.471e+00       6.340e-01          -0.291          -0.070           0.954       6.325e-01         -0.9358
 444       3.409e+00      -5.470e+00       7.088e-01          -0.142           0.008           0.990       9.760e-01         -0.6487
 445       3.928e+00      -5.470e+00       7.628e-01          -0.074           0.042           0.996       1.277e+00         -0.5501
 446       4.571e+00      -5.470e+00       7.932e-01          -0.024           0.065           0.998       1.509e+00         -0.5097
 447       5.302e+00      -5.470e+00       7.958e-01           0.015           0.083           0.996       1.656e+00         -0.4874
 448       6.079e+00      -5.470e+00       7.682e-01           0.055           0.100           0.993       1.711e+00         -0.4745
 449       6.855e+00      -5.470e+00       7.070e-01           0.102           0.118           0.988       1.671e+00         -0.4532
 450       7.586e+00      -5.471e+00       6.102e-01           0.161           0.140           0.977       1.540e+00         -0.3860
 451       8.230e+00      -5.471e+00       4.893e-01           0.208           0.156           0.966       1.317e+00         -0.2884
 452       8.748e+00      -5.472e+00       3.684e-01           0.246           0.167           0.955       1.011e+00         -0.1837
 453       9.112e+00      -5.473e+00       2.698e-01           0.278           0.177           0.944       6.384e-01         -0.1168
 454       9.299e+00      -5.473e+00       2.036e-01           0.456           0.225           0.861       2.378e-01          0.0442
Strip 18
 455       8.614e+00      -3.299e+00      -2.519e-02          -0.083          -0.121          -0.989       2.241e-01          0.0489
 456       8.414e+00      -3.299e+00       1.278e-02          -0.218          -0.161          -0.963       6.774e-01          0.2233
 457       8.027e+00      -3.299e+00       7.210e-02          -0.106          -0.127          -0.986       1.059e+00          0.3249
 458       7.474e+00      -3.299e+00       9.271e-02           0.016          -0.086          -0.996       1.382e+00          0.2928
 459       6.787e+00      -3.299e+00       6.502e-02           0.061          -0.070          -0.996       1.636e+00          0.1964
 460       6.007e+00      -3.299e+00       1.646e-02           0.063          -0.069          -0.996       1.794e+00          0.1012
 461       5.179e+00      -3.299e+00      -2.977e-02           0.048          -0.075          -0.996       1.847e+00          0.0229
 462       4.351e+00      -3.299e+00      -5.710e-02           0.017          -0.089          -0.996       1.793e+00         -0.0355
 463       3.572e+00      -3.299e+00      -5.392e-02          -0.027          -0.108          -0.994       1.639e+00         -0.0600
 464       2.885e+00      -3.299e+00      -2.026e-02          -0.074          -0.130          -0.989       1.392e+00         -0.0517
 465       2.332e+00      -3.299e+00       3.654e-02          -0.136          -0.159          -0.978       1.068e+00         -0.0206
 466       1.945e+00      -3.299e+00       1.151e-01          -0.283          -0.229          -0.931       6.998e-01          0.1043
 467       1.745e+00      -3.298e+00       2.230e-01          -0.709          -0.414          -0.572       3.870e-01          0.7061
 468       1.745e+00      -3.298e+00       3.483e-01          -0.735          -0.326           0.595       3.733e-01         -0.1111
 469       1.945e+00      -3.297e+00       4.564e-01          -0.291          -0.070           0.954       6.837e-01         -0.8367
 470       2.332e+00      -3.297e+00       5.362e-01          -0.142           0.008           0.990       1.055e+00         -0.5966
 471       2.885e+00      -3.297e+00       5.938e-01          -0.074           0.042           0.996       1.381e+00         -0.5169
 472       3.572e+00      -3.297e+00       6.262e-01          -0.024           0.065           0.998       1.632e+00         -0.4884
 473       4.351e+00      -3.297e+00       6.291e-01           0.015           0.083           0.996       1.791e+00         -0.4748
 474       5.179e+00      -3.297e+00       5.996e-01           0.055           0.100           0.993       1.850e+00         -0.4686
 475       6.007e+00      -3.297e+00       5.344e-01           0.102           0.118           0.988       1.807e+00         -0.4520
 476       6.787e+00      -3.297e+00       4.311e-01           0.161           0.140           0.977       1.666e+00         -0.3876
 477       7.474e+00      -3.298e+00       3.021e-01           0.208           0.156           0.966       1.425e+00         -0.2911
 478       8.027e+00      -3.298e+00       1.731e-01           0.246           0.167           0.955       1.094e+00         -0.1868
 479       8.414e+00      -3.299e+00       6.791e-02           0.278           0.177           0.944       6.905e-01         -0.1205
 480       8.614e+00      -3.299e+00      -2.683e-03           0.456           0.225           0.861       2.573e-01          0.0397
Strip 19
 481       7.922e+00      -1.102e+00      -2.351e-01          -0.083          -0.121          -0.989       2.399e-01          0.0440
 482       7.710e+00      -1.102e+00      -1.947e-01          -0.218          -0.161          -0.963       7.252e-01          0.2192
 483       7.298e+00      -1.102e+00      -1.316e-01          -0.106          -0.127          -0.986       1.134e+00          0.3194
 484       6.710e+00      -1.102e+00      -1.097e-01           0.016          -0.086          -0.996       1.479e+00          0.2815
 485       5.980e+00      -1.102e+00      -1.391e-01           0.061          -0.070          -0.996       1.751e+00          0.1789
 486       5.151e+00      -1.102e+00      -1.908e-01           0.063          -0.069          -0.996       1.920e+00          0.0811
 487       4.271e+00      -1.102e+00      -2.399e-01           0.048          -0.075          -0.996       1.977e+00          0.0047
 488       3.391e+00      -1.102e+00      -2.690e-01           0.017          -0.089          -0.996       1.919e+00         -0.0486
 489       2.562e+00      -1.102e+00      -2.656e-01          -0.027          -0.108          -0.994       1.754e+00         -0.0678
 490       1.832e+00      -1.102e+00      -2.298e-01          -0.074          -0.130          -0.989       1.490e+00         -0.0576
 491       1.244e+00      -1.102e+00      -1.694e-01          -0.136          -0.159          -0.978       1.144e+00         -0.0343
 492       8.321e-01      -1.102e+00      -8.589e-02          -0.283          -0.229          -0.931       7.493e-01          0.0581
 493       6.199e-01      -1.102e+00       2.883e-02          -0.708          -0.413          -0.572       4.144e-01          0.6638
 494       6.199e-01      -1.102e+00       1.620e-01          -0.735          -0.326           0.594       3.993e-01          0.0549
 495       8.321e-01      -1.102e+00       2.770e-01          -0.292          -0.070           0.954       7.315e-01         -0.6639
 496       1.244e+00      -1.102e+00       3.619e-01          -0.142           0.008           0.990       1.129e+00         -0.4959
 497       1.832e+00      -1.101e+00       4.231e-01          -0.074           0.042           0.996       1.478e+00         -0.4534
 498       2.562e+00      -1.101e+00       4.576e-01          -0.024           0.065           0.998       1.746e+00         -0.4524
 499       3.391e+00      -1.101e+00       4.606e-01           0.015           0.083           0.996       1.917e+00         -0.4589
 500       4.271e+00      -1.101e+00       4.293e-01           0.055           0.100           0.993       1.980e+00         -0.4695
 501       5.151e+00      -1.102e+00       3.599e-01           0.102           0.118           0.988       1.934e+00         -0.4661
 502       5.980e+00      -1.102e+00       2.501e-01           0.161           0.140           0.977       1.783e+00         -0.4085
 503       6.710e+00      -1.102e+00       1.130e-01           0.208           0.156           0.966       1.525e+00         -0.3116
 504       7.298e+00      -1.102e+00      -2.425e-02           0.246           0.167           0.955       1.171e+00         -0.2030
 505       7.710e+00      -1.102e+00      -1.361e-01           0.278           0.177           0.944       7.392e-01         -0.1325
 506       7.922e+00      -1.102e+00      -2.111e-01           0.456           0.225           0.861       2.755e-01          0.0277
Strip 20
 507       7.922e+00       1.102e+00      -2.351e-01          -0.083           0.121          -0.989       2.399e-01          0.0440
 508       7.710e+00       1.102e+00      -1.947e-01          -0.218           0.161          -0.963       7.252e-01          0.2192
 509       7.298e+00       1.102e+00      -1.316e-01          -0.106           0.127          -0.986       1.134e+00          0.3194
 510       6.710e+00       1.102e+00      -1.097e-01           0.016           0.086          -0.996       1.479e+00          0.2815
 511       5.980e+00       1.102e+00      -1.391e-01           0.061           0.070          -0.996       1.751e+00          0.1789
 512       5.151e+00       1.102e+00      -1.908e-01           0.063           0.069          -0.996       1.920e+00          0.0811
 513       4.271e+00       1.102e+00      -2.399e-01           0.048           0.075          -0.996       1.977e+00          0.0047
 514       3.391e+00       1.102e+00      -2.690e-01           0.017           0.089          -0.996       1.919e+00         -0.0486
 515       2.562e+00       1.102e+00      -2.656e-01          -0.027           0.108          -0.994       1.754e+00         -0.0678
 516       1.832e+00       1.102e+00      -2.298e-01          -0.074           0.130          -0.989       1.490e+00         -0.0576
 517       1.244e+00       1.102e+00      -1.694e-01          -0.136           0.159          -0.978       1.144e+00         -0.0343
 518       8.321e-01       1.102e+00      -8.589e-02          -0.283           0.229          -0.931       7.493e-01          0.0581
 519       6.199e-01       1.102e+00       2.883e-02          -0.708           0.413          -0.572       4.144e-01          0.6638
 520       6.199e-01       1.102e+00       1.620e-01          -0.735           0.326           0.594       3.993e-01          0.0549
 521       8.321e-01       1.102e+00       2.770e-01          -0.292           0.070           0.954       7.315e-01         -0.6639
 522       1.244e+00       1.102e+00       3.619e-01          -0.142          -0.008           0.990       1.129e+00         -0.4959
 523       1.832e+00       1.101e+00       4.231e-01          -0.074          -0.042           0.996       1.478e+00         -0.4534
 524       2.562e+00       1.101e+00       4.576e-01          -0.024          -0.065           0.998       1.746e+00         -0.4524
 525       3.391e+00       1.101e+00       4.606e-01           0.015          -0.083           0.996       1.917e+00         -0.4589
 526       4.271e+00       1.101e+00       4.293e-01           0.055          -0.100           0.993       1.980e+00         -0.4695
 527       5.151e+00       1.102e+00       3.599e-01           0.102          -0.118           0.988       1.934e+00         -0.4661
 528       5.980e+00       1.102e+00       2.501e-01           0.161          -0.140           0.977       1.783e+00         -0.4085
 529       6.710e+00       1.102e+00       1.130e-01           0.208          -0.156           0.966       1.525e+00         -0.3116
 530       7.298e+00       1.102e+00      -2.425e-02           0.246          -0.167           0.955       1.171e+00         -0.2030
 531       7.710e+00       1.102e+00      -1.361e-01           0.278          -0.177           0.944       7.392e-01         -0.1325
 532       7.922e+00       1.102e+00      -2.111e-01           0.456          -0.225           0.861       2.755e-01          0.0277
Strip 21
 533       8.614e+00       3.299e+00      -2.519e-02          -0.083           0.121          -0.989       2.241e-01          0.0489
 534       8.414e+00       3.299e+00       1.278e-02          -0.218           0.161          -0.963       6.774e-01          0.2233
 535       8.027e+00       3.299e+00       7.210e-02          -0.106           0.127          -0.986       1.059e+00          0.3249
 536       7.474e+00       3.299e+00       9.271e-02           0.016           0.086          -0.996       1.382e+00          0.2928
 537       6.787e+00       3.299e+00       6.502e-02           0.061           0.070          -0.996       1.636e+00          0.1964
 538       6.007e+00       3.299e+00       1.646e-02           0.063           0.069          -0.996       1.794e+00          0.1012
 539       5.179e+00       3.299e+00      -2.977e-02           0.048           0.075          -0.996       1.847e+00          0.0229
 540       4.351e+00       3.299e+00      -5.710e-02           0.017           0.089          -0.996       1.793e+00         -0.0355
 541       3.572e+00       3.299e+00      -5.392e-02          -0.027           0.108          -0.994       1.639e+00         -0.0600
 542       2.885e+00       3.299e+00      -2.026e-02          -0.074           0.130          -0.989       1.392e+00         -0.0517
 543       2.332e+00       3.299e+00       3.654e-02          -0.136           0.159          -0.978       1.068e+00         -0.0206
 544       1.945e+00       3.299e+00       1.151e-01          -0.283           0.229          -0.931       6.998e-01          0.1043
 545       1.745e+00       3.298e+00       2.230e-01          -0.709           0.414          -0.572       3.870e-01          0.7061
 546       1.745e+00       3.298e+00       3.483e-01          -0.735           0.326           0.595       3.733e-01         -0.1111
 547       1.945e+00       3.297e+00       4.564e-01          -0.291           0.070           0.954       6.837e-01         -0.8367
 548       2.332e+00       3.297e+00       5.362e-01          -0.142          -0.008           0.990       1.055e+00         -0.5966
 549       2.885e+00       3.297e+00       5.938e-01          -0.074          -0.042           0.996       1.381e+00         -0.5169
 550       3.572e+00       3.297e+00       6.262e-01          -0.024          -0.065           0.998       1.632e+00         -0.4884
 551       4.351e+00       3.297e+00       6.291e-01           0.015          -0.083           0.996       1.791e+00         -0.4748
 552       5.179e+00       3.297e+00       5.996e-01           0.055          -0.100           0.993       1.850e+00         -0.4686
 553       6.007e+00       3.297e+00       5.344e-01           0.102          -0.118           0.988       1.807e+00         -0.4520
 554       6.787e+00       3.297e+00       4.311e-01           0.161          -0.140           0.977       1.666e+00         -0.3876
 555       7.474e+00       3.298e+00       3.021e-01           0.208          -0.156           0.966       1.425e+00         -0.2911
 556       8.027e+00       3.298e+00       1.731e-01           0.246          -0.167           0.955       1.094e+00         -0.1868
 557       8.414e+00       3.299e+00       6.791e-02           0.278          -0.177           0.944       6.905e-01         -0.1205
 558       8.614e+00       3.299e+00      -2.683e-03           0.456          -0.225           0.861       2.573e-01          0.0397
Strip 22
 559       9.299e+00       5.473e+00       1.825e-01          -0.083           0.121          -0.989       2.072e-01          0.0523
 560       9.112e+00       5.473e+00       2.181e-01          -0.218           0.161          -0.963       6.263e-01          0.2258
 561       8.748e+00       5.473e+00       2.737e-01          -0.106           0.127          -0.986       9.793e-01          0.3275
 562       8.230e+00       5.473e+00       2.930e-01           0.016           0.086          -0.996       1.278e+00          0.2964
 563       7.586e+00       5.473e+00       2.671e-01           0.061           0.070          -0.996       1.513e+00          0.2021
 564       6.855e+00       5.473e+00       2.216e-01           0.063           0.069          -0.996       1.659e+00          0.1091
 565       6.079e+00       5.473e+00       1.782e-01           0.048           0.075          -0.996       1.708e+00          0.0330
 566       5.302e+00       5.473e+00       1.526e-01           0.017           0.089          -0.996       1.658e+00         -0.0232
 567       4.571e+00       5.473e+00       1.556e-01          -0.027           0.108          -0.994       1.515e+00         -0.0451
[...]
 852       1.339e+01       2.396e+01       1.936e+00           0.017           0.089          -0.996       3.232e-01          0.0142
 853       1.307e+01       2.396e+01       1.937e+00          -0.027           0.108          -0.994       2.950e-01          0.0090
 854       1.279e+01       2.396e+01       1.951e+00          -0.074           0.130          -0.989       2.503e-01          0.0445
 855       1.257e+01       2.396e+01       1.974e+00          -0.137           0.160          -0.978       1.917e-01          0.1232
 856       1.241e+01       2.396e+01       2.006e+00          -0.286           0.230          -0.930       1.250e-01          0.3408
 857       1.233e+01       2.395e+01       2.049e+00          -0.718           0.417          -0.557       6.881e-02          0.7824
 858       1.233e+01       2.395e+01       2.100e+00          -0.725           0.320           0.609       6.809e-02         -0.7245
 859       1.241e+01       2.395e+01       2.144e+00          -0.289           0.068           0.955       1.242e-01         -1.2869
 860       1.257e+01       2.395e+01       2.176e+00          -0.142          -0.008           0.990       1.909e-01         -0.8211
 861       1.279e+01       2.395e+01       2.199e+00          -0.074          -0.042           0.996       2.493e-01         -0.6562
 862       1.307e+01       2.394e+01       2.212e+00          -0.024          -0.065           0.998       2.941e-01         -0.5798
 863       1.339e+01       2.394e+01       2.214e+00           0.015          -0.083           0.996       3.225e-01         -0.5337
 864       1.372e+01       2.395e+01       2.202e+00           0.055          -0.100           0.993       3.328e-01         -0.5046
 865       1.406e+01       2.395e+01       2.175e+00           0.102          -0.118           0.988       3.247e-01         -0.4718
 866       1.438e+01       2.395e+01       2.133e+00           0.162          -0.140           0.977       2.990e-01         -0.3960
 867       1.466e+01       2.395e+01       2.081e+00           0.209          -0.156           0.965       2.556e-01         -0.2920
 868       1.488e+01       2.396e+01       2.029e+00           0.247          -0.168           0.954       1.961e-01         -0.1827
 869       1.504e+01       2.396e+01       1.986e+00           0.279          -0.177           0.944       1.238e-01         -0.1122
 870       1.512e+01       2.396e+01       1.958e+00           0.459          -0.226           0.859       4.601e-02          0.0560
Strip 34
 871       1.540e+01       2.485e+01       2.033e+00          -0.083           0.121          -0.989       3.127e-02          0.0562
 872       1.533e+01       2.485e+01       2.048e+00          -0.219           0.161          -0.962       9.426e-02          0.2244
 873       1.518e+01       2.484e+01       2.070e+00          -0.106           0.127          -0.986       1.477e-01          0.3219
 874       1.497e+01       2.484e+01       2.078e+00           0.016           0.086          -0.996       1.932e-01          0.2902
 875       1.470e+01       2.484e+01       2.068e+00           0.061           0.070          -0.996       2.290e-01          0.1992
 876       1.441e+01       2.485e+01       2.049e+00           0.063           0.069          -0.996       2.511e-01          0.1126
 877       1.409e+01       2.485e+01       2.032e+00           0.048           0.075          -0.996       2.585e-01          0.0454
 878       1.378e+01       2.485e+01       2.021e+00           0.017           0.089          -0.996       2.508e-01          0.0014
 879       1.348e+01       2.485e+01       2.022e+00          -0.027           0.108          -0.994       2.289e-01         -0.0046
 880       1.322e+01       2.485e+01       2.035e+00          -0.074           0.130          -0.989       1.941e-01          0.0302
 881       1.300e+01       2.484e+01       2.057e+00          -0.137           0.160          -0.978       1.487e-01          0.1071
 882       1.286e+01       2.484e+01       2.087e+00          -0.286           0.230          -0.930       9.695e-02          0.3205
 883       1.278e+01       2.484e+01       2.127e+00          -0.719           0.417          -0.556       5.332e-02          0.7803
 884       1.278e+01       2.484e+01       2.175e+00          -0.724           0.319           0.611       5.291e-02         -0.6712
 885       1.286e+01       2.483e+01       2.216e+00          -0.289           0.068           0.955       9.644e-02         -1.2431
 886       1.300e+01       2.483e+01       2.246e+00          -0.142          -0.008           0.990       1.482e-01         -0.7959
 887       1.322e+01       2.483e+01       2.268e+00          -0.074          -0.042           0.996       1.935e-01         -0.6353
 888       1.348e+01       2.483e+01       2.280e+00          -0.024          -0.065           0.998       2.282e-01         -0.5600
 889       1.378e+01       2.483e+01       2.282e+00           0.015          -0.083           0.996       2.502e-01         -0.5141
 890       1.409e+01       2.483e+01       2.270e+00           0.055          -0.100           0.993       2.582e-01         -0.4853
 891       1.441e+01       2.483e+01       2.246e+00           0.102          -0.118           0.988       2.519e-01         -0.4539
 892       1.470e+01       2.483e+01       2.206e+00           0.162          -0.140           0.977       2.319e-01         -0.3810
 893       1.497e+01       2.484e+01       2.157e+00           0.209          -0.156           0.965       1.982e-01         -0.2810
 894       1.518e+01       2.484e+01       2.109e+00           0.247          -0.168           0.954       1.521e-01         -0.1754
 895       1.533e+01       2.484e+01       2.069e+00           0.280          -0.177           0.944       9.598e-02         -0.1084
 896       1.540e+01       2.485e+01       2.042e+00           0.460          -0.226           0.859       3.567e-02          0.0592
Strip 35
 897       1.563e+01       2.556e+01       2.102e+00          -0.083           0.121          -0.989       2.322e-02          0.0510
 898       1.555e+01       2.556e+01       2.115e+00          -0.219           0.161          -0.962       6.998e-02          0.2152
 899       1.541e+01       2.556e+01       2.137e+00          -0.106           0.127          -0.986       1.097e-01          0.3093
 900       1.522e+01       2.556e+01       2.144e+00           0.016           0.086          -0.996       1.435e-01          0.2758
 901       1.497e+01       2.556e+01       2.134e+00           0.061           0.070          -0.996       1.701e-01          0.1837
 902       1.469e+01       2.556e+01       2.117e+00           0.063           0.069          -0.996       1.866e-01          0.0959
 903       1.439e+01       2.556e+01       2.100e+00           0.048           0.075          -0.996       1.920e-01          0.0269
 904       1.409e+01       2.556e+01       2.090e+00           0.017           0.089          -0.996       1.863e-01         -0.0196
 905       1.381e+01       2.556e+01       2.091e+00          -0.027           0.108          -0.994       1.700e-01         -0.0280
 906       1.356e+01       2.556e+01       2.103e+00          -0.074           0.130          -0.989       1.442e-01          0.0047
 907       1.336e+01       2.556e+01       2.124e+00          -0.137           0.160          -0.978       1.104e-01          0.0780
 908       1.322e+01       2.556e+01       2.152e+00          -0.286           0.230          -0.930       7.194e-02          0.2832
 909       1.315e+01       2.556e+01       2.191e+00          -0.720           0.418          -0.554       3.955e-02          0.7736
 910       1.315e+01       2.555e+01       2.236e+00          -0.723           0.319           0.612       3.935e-02         -0.5832
 911       1.322e+01       2.555e+01       2.274e+00          -0.288           0.068           0.955       7.168e-02         -1.1719
 912       1.336e+01       2.555e+01       2.303e+00          -0.141          -0.009           0.990       1.101e-01         -0.7532
 913       1.356e+01       2.555e+01       2.324e+00          -0.074          -0.042           0.996       1.437e-01         -0.5990
 914       1.381e+01       2.554e+01       2.335e+00          -0.024          -0.065           0.998       1.695e-01         -0.5245
 915       1.409e+01       2.554e+01       2.336e+00           0.015          -0.083           0.996       1.858e-01         -0.4780
 916       1.439e+01       2.555e+01       2.326e+00           0.055          -0.100           0.993       1.917e-01         -0.4496
 917       1.469e+01       2.555e+01       2.302e+00           0.102          -0.118           0.988       1.870e-01         -0.4212
 918       1.497e+01       2.555e+01       2.265e+00           0.162          -0.140           0.977       1.722e-01         -0.3546
 919       1.522e+01       2.555e+01       2.219e+00           0.209          -0.156           0.965       1.472e-01         -0.2625
 920       1.541e+01       2.556e+01       2.173e+00           0.247          -0.168           0.954       1.129e-01         -0.1646
 921       1.555e+01       2.556e+01       2.135e+00           0.280          -0.177           0.944       7.125e-02         -0.1043
 922       1.563e+01       2.556e+01       2.110e+00           0.460          -0.226           0.859       2.647e-02          0.0622
Strip 36
 923       1.580e+01       2.610e+01       2.153e+00          -0.083           0.121          -0.989       1.598e-02          0.0317
 924       1.573e+01       2.610e+01       2.166e+00          -0.219           0.161          -0.962       4.815e-02          0.1877
 925       1.559e+01       2.610e+01       2.187e+00          -0.106           0.127          -0.986       7.547e-02          0.2763
 926       1.540e+01       2.610e+01       2.194e+00           0.016           0.086          -0.996       9.878e-02          0.2429
 927       1.517e+01       2.610e+01       2.184e+00           0.061           0.070          -0.996       1.171e-01          0.1541
 928       1.490e+01       2.610e+01       2.168e+00           0.063           0.069          -0.996       1.284e-01          0.0699
 929       1.461e+01       2.610e+01       2.152e+00           0.048           0.075          -0.996       1.322e-01          0.0028
 930       1.432e+01       2.610e+01       2.142e+00           0.017           0.089          -0.996       1.282e-01         -0.0459
 931       1.406e+01       2.610e+01       2.144e+00          -0.027           0.108          -0.994       1.170e-01         -0.0608
 932       1.382e+01       2.610e+01       2.155e+00          -0.074           0.130          -0.989       9.920e-02         -0.0359
 933       1.363e+01       2.610e+01       2.175e+00          -0.137           0.160          -0.978       7.594e-02          0.0291
 934       1.349e+01       2.610e+01       2.202e+00          -0.286           0.230          -0.930       4.948e-02          0.2205
 935       1.342e+01       2.610e+01       2.239e+00          -0.721           0.418          -0.553       2.719e-02          0.7530
 936       1.342e+01       2.609e+01       2.282e+00          -0.723           0.318           0.614       2.711e-02         -0.4641
 937       1.349e+01       2.609e+01       2.319e+00          -0.288           0.068           0.955       4.937e-02         -1.0729
 938       1.363e+01       2.609e+01       2.346e+00          -0.141          -0.009           0.990       7.580e-02         -0.6892
 939       1.382e+01       2.609e+01       2.366e+00          -0.074          -0.042           0.996       9.894e-02         -0.5401
 940       1.406e+01       2.609e+01       2.377e+00          -0.024          -0.065           0.998       1.167e-01         -0.4639
 941       1.432e+01       2.609e+01       2.378e+00           0.015          -0.083           0.996       1.279e-01         -0.4170
 942       1.461e+01       2.609e+01       2.368e+00           0.055          -0.100           0.993       1.320e-01         -0.3923
 943       1.490e+01       2.609e+01       2.345e+00           0.102          -0.118           0.988       1.287e-01         -0.3722
 944       1.517e+01       2.609e+01       2.310e+00           0.162          -0.140           0.977       1.185e-01         -0.3182
 945       1.540e+01       2.609e+01       2.266e+00           0.209          -0.156           0.965       1.013e-01         -0.2419
 946       1.559e+01       2.610e+01       2.221e+00           0.247          -0.168           0.954       7.768e-02         -0.1593
 947       1.573e+01       2.610e+01       2.185e+00           0.280          -0.177           0.943       4.902e-02         -0.1122
 948       1.580e+01       2.610e+01       2.161e+00           0.460          -0.226           0.858       1.821e-02          0.0533
Strip 37
 949       1.591e+01       2.647e+01       2.188e+00          -0.083           0.121          -0.989       9.341e-03         -0.0653
 950       1.584e+01       2.647e+01       2.201e+00          -0.219           0.161          -0.962       2.814e-02          0.0654
 951       1.571e+01       2.646e+01       2.220e+00          -0.106           0.127          -0.986       4.411e-02          0.1510
 952       1.553e+01       2.646e+01       2.227e+00           0.016           0.086          -0.996       5.775e-02          0.1434
 953       1.530e+01       2.646e+01       2.218e+00           0.061           0.070          -0.996       6.844e-02          0.0847
 954       1.504e+01       2.647e+01       2.202e+00           0.063           0.069          -0.996       7.507e-02          0.0249
 955       1.476e+01       2.647e+01       2.187e+00           0.048           0.075          -0.996       7.726e-02         -0.0255
 956       1.448e+01       2.647e+01       2.177e+00           0.017           0.089          -0.996       7.495e-02         -0.0664
 957       1.422e+01       2.647e+01       2.178e+00          -0.027           0.108          -0.994       6.838e-02         -0.0866
 958       1.399e+01       2.647e+01       2.190e+00          -0.074           0.130          -0.989       5.798e-02         -0.0827
 959       1.381e+01       2.646e+01       2.209e+00          -0.137           0.160          -0.978       4.438e-02         -0.0489
 960       1.368e+01       2.646e+01       2.235e+00          -0.287           0.230          -0.930       2.891e-02          0.1063
 961       1.361e+01       2.646e+01       2.271e+00          -0.721           0.418          -0.552       1.588e-02          0.6823
 962       1.361e+01       2.646e+01       2.312e+00          -0.722           0.318           0.615       1.586e-02         -0.3361
 963       1.368e+01       2.645e+01       2.348e+00          -0.288           0.068           0.955       2.888e-02         -0.9507
 964       1.381e+01       2.645e+01       2.375e+00          -0.141          -0.009           0.990       4.432e-02         -0.5923
 965       1.399e+01       2.645e+01       2.394e+00          -0.074          -0.042           0.996       5.785e-02         -0.4426
 966       1.422e+01       2.645e+01       2.405e+00          -0.024          -0.065           0.998       6.821e-02         -0.3710
 967       1.448e+01       2.645e+01       2.406e+00           0.015          -0.083           0.996       7.477e-02         -0.3357
 968       1.476e+01       2.645e+01       2.396e+00           0.055          -0.100           0.993       7.713e-02         -0.3256
 969       1.504e+01       2.645e+01       2.374e+00           0.102          -0.118           0.988       7.522e-02         -0.3256
 970       1.530e+01       2.645e+01       2.340e+00           0.162          -0.140           0.977       6.925e-02         -0.3031
 971       1.553e+01       2.646e+01       2.297e+00           0.209          -0.156           0.965       5.917e-02         -0.2692
 972       1.571e+01       2.646e+01       2.254e+00           0.247          -0.168           0.954       4.540e-02         -0.2307
 973       1.584e+01       2.646e+01       2.219e+00           0.280          -0.177           0.943       2.864e-02         -0.2177
 974       1.591e+01       2.647e+01       2.196e+00           0.461          -0.227           0.858       1.064e-02         -0.0516
Strip 38
 975       1.597e+01       2.665e+01       2.205e+00          -0.083           0.121          -0.989       3.072e-03         -0.1660
 976       1.590e+01       2.665e+01       2.218e+00          -0.219           0.161          -0.962       9.253e-03         -0.0969
 977       1.578e+01       2.665e+01       2.237e+00          -0.106           0.127          -0.986       1.451e-02         -0.0471
 978       1.559e+01       2.664e+01       2.244e+00           0.016           0.086          -0.996       1.899e-02         -0.0235
 979       1.537e+01       2.665e+01       2.235e+00           0.061           0.070          -0.996       2.251e-02         -0.0259
 980       1.511e+01       2.665e+01       2.219e+00           0.063           0.069          -0.996       2.469e-02         -0.0377
 981       1.484e+01       2.665e+01       2.204e+00           0.048           0.075          -0.996       2.541e-02         -0.0544
 982       1.456e+01       2.665e+01       2.195e+00           0.017           0.089          -0.996       2.465e-02         -0.0732
 983       1.431e+01       2.665e+01       2.196e+00          -0.027           0.108          -0.994       2.249e-02         -0.0835
 984       1.408e+01       2.665e+01       2.207e+00          -0.074           0.130          -0.989       1.907e-02         -0.0838
 985       1.390e+01       2.665e+01       2.226e+00          -0.137           0.160          -0.978       1.459e-02         -0.0781
 986       1.377e+01       2.664e+01       2.251e+00          -0.287           0.230          -0.930       9.506e-03          0.0010
 987       1.370e+01       2.664e+01       2.287e+00          -0.722           0.418          -0.552       5.221e-03          0.6005
 988       1.370e+01       2.664e+01       2.328e+00          -0.722           0.318           0.615       5.218e-03         -0.1862
 989       1.377e+01       2.663e+01       2.363e+00          -0.288           0.068           0.955       9.499e-03         -0.7791
 990       1.390e+01       2.663e+01       2.389e+00          -0.141          -0.009           0.990       1.458e-02         -0.4509
 991       1.408e+01       2.663e+01       2.408e+00          -0.074          -0.042           0.996       1.903e-02         -0.3310
 992       1.431e+01       2.663e+01       2.419e+00          -0.024          -0.065           0.998       2.243e-02         -0.2835
 993       1.456e+01       2.663e+01       2.420e+00           0.015          -0.083           0.996       2.459e-02         -0.2611
 994       1.484e+01       2.663e+01       2.410e+00           0.055          -0.100           0.993       2.537e-02         -0.2558
 995       1.511e+01       2.663e+01       2.389e+00           0.102          -0.118           0.988       2.474e-02         -0.2585
 996       1.537e+01       2.664e+01       2.355e+00           0.162          -0.140           0.977       2.277e-02         -0.2519
 997       1.559e+01       2.664e+01       2.313e+00           0.209          -0.156           0.965       1.946e-02         -0.2601
 998       1.578e+01       2.664e+01       2.270e+00           0.247          -0.168           0.954       1.493e-02         -0.2853
 999       1.590e+01       2.665e+01       2.236e+00           0.280          -0.177           0.943       9.419e-03         -0.3153
1000       1.597e+01       2.665e+01       2.213e+00           0.461          -0.227           0.858       3.498e-03         -0.1563










